<?xml version='1.0' encoding='utf-8'?>
<routes xmlns:xsi="http://www.w3.org/2001/XMLSchema-instance" xsi:noNamespaceSchemaLocation="http://sumo.dlr.de/xsd/routes_file.xsd">
    <route id="r_0" repeat="0" edges="669286590#0 669286590#1 669286590#2 669286590#3 669286590#4 669286590#5 669286592#0 -1237157417 -617654357#16 -617654357#14 -617654357#12 -617654357#11 -617654357#10 -617654357#9 -617654357#8 -617654357#7 -617654357#6 -617654357#5 -617654357#4 -617654357#3 -617654357#2 -617654357#1 -617654357#0 29251749#0 29251749#1 29251749#2 567879770#0 567879770#1 5095092#0 5095092#1 5095092#3 5095092#4 617654362#0 617654362#1 617654362#2 617654362#3 617654362#4 846602455#0 846602455#1 617654361#0 617654361#1 617654361#2 29251406#0 29251406#1 29251406#2 29251406#3 1024502008#0 1024502008#1 1024502008#2 1024502008#3 1303594730 4308740#0 4308740#1 4308740#2 4308740#3 4308740#4 4308740#5 567881809#1 1303596581#0 1303596581#1 1303596581#2 4308743#2 4308743#3 4308743#4 1303599897#0 1303599897#1 670619383#0 670619383#1 670619383#3 670619383#4 670619383#5 670619382#0 670619382#1 670619382#3 670619382#4 670619382#5 670619382#7 670619382#8 670619382#9 670619382#10 846602463 846602462#0 846602462#1 846602462#2 846602462#3 846602462#4 846602462#5 846602462#6 846602462#7 846602462#8 481337806#0 481337806#1 481337806#2 481337806#3 481337806#4 670619396#0 670619396#1 670619396#2 670619396#3 4794353#0 4794353#2 4794353#3 4794353#4 4794353#5 4794353#7 4794353#8 4794353#9 4794353#10 4794353#11 4794353#12 4794353#13 4794353#14 4794353#15 4794353#16 4794353#17 1305808235 669286591#4 669286591#5 669286593"> 
        <stop busStop="bs_1" duration="10.00" />
        <stop busStop="bs_2" duration="10.00" />
        <stop busStop="bs_3" duration="10.00" />
        <stop busStop="bs_4" duration="10.00" />       
        <stop busStop="bs_5" duration="10.00" />
        <stop busStop="bs_6" duration="10.00" />
        <stop busStop="bs_7" duration="10.00" />
        <stop busStop="bs_8" duration="10.00" />
        <stop busStop="bs_9" duration="10.00" />
        <stop busStop="bs_10" duration="10.00" />
        <stop busStop="bs_11" duration="10.00" />
        <stop busStop="bs_12" duration="10.00" />
        <stop busStop="bs_13" duration="10.00" />
        <stop busStop="bs_14" duration="10.00" />
        <stop busStop="bs_15" duration="10.00" />
        <stop busStop="bs_16" duration="10.00" />       
        <stop busStop="bs_17" duration="10.00" />
        <stop busStop="bs_18" duration="10.00" />
        <stop busStop="bs_19" duration="10.00" />
        <stop busStop="bs_20" duration="10.00" />
        <stop busStop="bs_21" duration="10.00" />
        <stop busStop="bs_22" duration="10.00" />
        <stop busStop="bs_23" duration="10.00" />
        <stop busStop="bs_24" duration="10.00" />
        <stop busStop="bs_25" duration="10.00" />
        <stop busStop="bs_26" duration="10.00" />
        <stop busStop="bs_27" duration="10.00" />
        <stop busStop="bs_28" duration="10.00" />
        <stop busStop="bs_29" duration="10.00" />       
        <stop busStop="bs_30" duration="10.00" />
        <stop busStop="bs_31" duration="10.00" />
        <stop busStop="bs_32" duration="10.00" />
        <stop busStop="bs_33" duration="10.00" />       
        <stop busStop="bs_34" duration="10.00" />
        <stop busStop="bs_35" duration="10.00" />
        <stop busStop="bs_36" duration="10.00" />
    </route>
    
    <vType id="bus_bus" vClass="bus" emissionClass="HBEFA3/PC_G_EU4" length="4" width="1.80" height="2.00" personCapacity="20" maxSpeed="5" />
    <vehicle id="jeep" type="bus_bus" depart="0.00" route="r_0">
    </vehicle>
    
    <vType id="ped_pedestrian" vClass="pedestrian" speedDev="0" maxSpeed="1.39" accel="0.00999" decel="0.00999" />

    <!--8 STATIONARY NODES-->
    <person id="ped0" depart="0.00" type="ped_pedestrian"> <!--Philcoa-->
        <stop edge="741730141" duration="1607"/></person>
    <person id="ped1" depart="0.00" type="ped_pedestrian"> <!--UP Village Matahimik St.-->
        <stop edge="1065527802" duration="1607"/></person>
    <person id="ped2" depart="0.00" type="ped_pedestrian" departPos="-1"> <!--Katipunan-->
        <stop edge="1063009574#3" duration="1607"/></person>
    <person id="ped3" depart="0.00" type="ped_pedestrian"> <!--UPTC-->
        <stop edge="416850789#1" duration="1607"/></person>
    <person id="ped4" depart="0.00" type="ped_pedestrian" departPos="-1"> <!--Capitol Hills-->
        <stop edge="-149993744#0" duration="1607"/></person>
    <person id="ped5" depart="0.00" type="ped_pedestrian"> <!--Tandang Sora Ave.-->
        <stop edge="87754109#18" duration="1607"/></person>
    <person id="ped6" depart="0.00" type="ped_pedestrian"> <!--Central-->
        <stop edge="585294583#1" duration="1607"/></person>
    <person id="ped7" depart="0.00" type="ped_pedestrian"> <!--Culiat-->
        <stop edge="550985862#0" duration="1607"/></person>

    <!--LOW duration=1607-->
    <person id="ped8" depart="0.00" type="ped_pedestrian"> <!-- bs_1 -> bs_9 -->
        <walk edges="669286590#0" busStop="bs_1" />
    <ride lines="jeep" from="669286590#0" to="-617654357#1" /></person>
    <person id="ped9" depart="0.00" type="ped_pedestrian"> <!-- bs_7 -> bs_12 -->
        <walk edges="-897814510#1 -617654357#8 -617654357#9 -617654357#10 -617654357#11 -617654357#12" busStop="bs_7" />
    <ride lines="jeep" from="-617654357#12" to="5095092#0" /></person>
    <person id="ped10" depart="0.00" type="ped_pedestrian"> <!-- bs_8 -> bs_25 -->
        <walk edges="140796254#2 -140796254#1 -149993761 -53441474 -617654357#11 -617654357#10 -617654357#9 -617654357#8 -617654357#7" busStop="bs_8" />
    <ride lines="jeep" from="-617654357#7" to="846602463" /></person>
    <person id="ped11" depart="0.00" type="ped_pedestrian"> <!-- bs_14 -> bs_26 -->
        <walk edges="-29251425#6 29251754 567881807#0 567881807#1 29251761 -931297106#1 1303613782 1303613781 1024502008#2 1024502008#1 1024502008#0 29251406#3 29251406#2 29251406#1 29251406#0 617654361#2 617654361#1 617654361#0" busStop="bs_14" />
    <ride lines="jeep" from="617654361#0" to="846602462#4" /></person>
    <person id="ped12" depart="0.00" type="ped_pedestrian">  <!-- bs_20 -> bs_30 -->
        <walk edges="-1303599897#0 4308743#4" busStop="bs_20" /> 
    <ride lines="jeep" from="4308743#4" to="4794353#2" /></person>
    <person id="ped13" depart="0.00" type="ped_pedestrian">  <!-- bs_22 -> bs_34 -->
        <walk edges="-1083332064#0 -5095103#3 -5095103#2 5095103#1 5095103#0 846602462#0 846602463 670619382#10 670619382#9 670619382#8 670619382#7 670619382#5 670619382#4 670619382#3 670619382#1 670619382#0 670619383#5 670619383#4" busStop="bs_22" />
    <ride lines="jeep" from="670619383#4" to="4794353#15" /></person>
    <person id="ped14" depart="0.00" type="ped_pedestrian"> <!-- bs_24 -> bs_35 -->
        <walk edges="81465953#5 -81465953#6 -1232317670#0 -1232317670#1 -1083329084 -550896127#0 23907716#3 670821737#3 99654461 99654456 23907728 99654459 670821758 569342147#6 -569342147#7 -1083332064#0 -5095103#3 -5095103#2 5095103#1 5095103#0 846602462#0 846602463 670619382#10 670619382#9 670619382#8 670619382#7 670619382#5 670619382#4 670619382#3" busStop="bs_24" />
    <ride lines="jeep" from="670619382#3" to="669286591#5" /></person>
    <person id="ped15" depart="0.00" type="ped_pedestrian"> <!-- bs_25 -> END -->
        <walk edges="1303845110#3 1303845110#2 617654362#1 617654362#0 4486540#12 565968552#1 565575155#1 565575155#0 565965577#6 -4588972#1 -4588972#2 -4588972#3 -37207113#0 -37207113#1 -37207112#0 -37207112#1 -37207112#2 -481337813#6 5095109#14 5095109#13 5095109#12 5095109#9 -29251425#12 -29251425#13 -29251425#14 -29251425#15 670619382#0 670619382#1 670619382#3 670619382#4 670619382#5 670619382#7 670619382#8 670619382#9 670619382#10 846602463" busStop="bs_25" />
    <ride lines="jeep" from="846602463" to="669286590#1" /></person>
    <person id="ped16" depart="0.00" type="ped_pedestrian"> <!-- bs_34 -> END -->
        <walk edges="-481337813#4 -481337813#5 -481337813#6 -481337813#7 -481337813#8 -481337813#9 -481337813#10 -481337813#12 -29251820#1 -29251820#2 -29251820#3 -29251820#4 -29251820#5 -29251820#6 -29251820#7 629328545#0 565992309#10 565992310#1 13858697 4588960#0 4588960#1 4588960#2 1303646704#2 1303646704#1 1303646705#1 -670619396#1 -670619396#2 -670619396#3 4794353#0 4794353#2 4794353#3 4794353#4 4794353#5 4794353#7 4794353#8 4794353#9 4794353#10 4794353#11 4794353#12 4794353#13 4794353#14 4794353#15" busStop="bs_34" />
    <ride lines="jeep" from="4794353#15" to="1024502008#3" /></person>

    <!--LOW Vehicles (656 vehicles)-->
    <vType id="car" vClass="passenger" minGap="1.0"/>

    <route id="r_1" edges="4794353#11 4794353#12 4794353#13 4794353#14 4794353#15 4794353#16 4794353#17 1305808235 669286591#4 669286591#5 669286593 669286590#0 669286590#1 669286590#2 669286590#3 629319407 29251742#0 29251742#1 29251742#2 29251742#3 569215283#0 569215283#1 569215283#2 569215283#3 569215283#4 -149993777#1 -149993777#0 4922743#0 4922743#1 4922743#2 4922743#3 4922743#4 -1232571604 -237386421 -237386420#2 -237386420#1 -481337812#7 -481337812#6 -481337812#4 -481337812#3 -481337812#2 -481337812#0 -29251425#15 -29251425#14 -29251425#13 -29251425#12 -29251425#11 -29251425#10 -29251425#9 -29251425#8 -29251425#7 -1136910819#2 -1136910819#1" />
  <flow id="f_1" type="car" route="r_1" begin="0.00" end="1607.0" number="2" />
  <route id="r_2" edges="-649755476#2 -649755476#1 -649755476#0 -4351562 669286592#0 -1237157417 -617654357#16 -617654357#14 -617654357#12 -617654357#11 -617654357#10 -617654357#9 -617654357#8 -617654357#7 -617654357#6 -617654357#5 -617654357#4 -617654357#3 -617654357#2 -617654357#1 -617654357#0 -1232571604 -237386421 -237386420#2 -237386420#1 -481337812#7 -481337812#6 -481337812#4 -481337812#3 -481337812#2 -481337812#0 -29251425#15 -29251425#14 -29251425#13 -29251425#12 -29251425#11 -29251425#10 -29251425#9 -29251425#8 -29251425#7 -29251425#6 -29251425#5 -29251425#4 -29251425#3 -29251425#2 -29251425#1 -29251425#0 -5095081#2 -1232851061#1 -1232851061#0 -5095272#1 -5095272#0 965370809 -5095099#1 -5095099#0" />
  <flow id="f_2" type="car" route="r_2" begin="0.00" end="1607.0" number="2" />
  <route id="r_3" edges="5095099#1 -965370809 5095272#0 5095272#1 5095272#2 1232851061#1 617654364#0 617654364#1 617654364#2 617654364#3 225928461 1176115148#0 1176115148#1 5020042 1063001470 616937686 481337809 -657268860 -669286592#9 -669286592#8 -669286592#7 -669286592#6 -669286592#5 -669286592#4 -669286592#3 -669286592#1 -669286590#5 -669286590#4 -669286590#3 -669286590#2 -669286590#1 -669286590#0 -669286593 1309404920#0 1309404920#1 1303806780 -1065527803#6 -1065527803#4 4922725#0 4922725#1" />
  <flow id="f_3" type="car" route="r_3" begin="0.00" end="1607.0" number="3" />
  <route id="r_4" edges="705356174#4 705356174#5 705356174#6 -149993688#14 -149993688#11 -149993688#10 -149993688#9 -149993688#8 -149993688#7 -149993688#6 -149993688#5 -149993688#4 -149993688#3 -149993688#2 -149993688#1 -149993688#0 585294582#1 169059372 398689855#0 398689855#1 398689855#2 398689855#3 398689855#4 398689857 547157509 846602452#0 846602452#1 846602452#2 846602452#3 846602451 569341845#0 569341845#1 569341845#2 569341845#3 1409748513#0 1409748513#1 572391290 842265841 1123244175 156572893#0 156572893#1 568988340 568988339 670619386 670821765#0 670821765#1 670821765#2 1063001474#0 1063001474#1 934051740#0 934051740#1 934051740#2 834542158#0 834542158#1 834542158#2 216702187#0 216702187#1 569322627#0 1303179367#0 1303179367#1 1303179367#2 156207978#0 156207978#1 156207978#2 156207978#3 156207978#4 156207978#5 156207978#6 156207978#7 -149993744#1 -149993744#0 149993744#0 149993744#1 -156207978#7 -156207978#6" />
  <flow id="f_4" type="car" route="r_4" begin="0.00" end="1607.0" number="2" />
  <route id="r_5" edges="1176115148#1 5020042 1063001470 616937686 481337809 -657268860 -669286592#9 -669286592#8 -669286592#7 -669286592#6 -669286592#5 -669286592#4 -669286592#3 -669286592#1 -669286590#5 -669286590#4 629319407 29251742#0 29251742#1 29251742#2 29251742#3 569215283#0 569215283#1 569215283#2 569215283#3 569215283#4 -1193523927#5 -1193523927#4 -1193523927#3" />
  <flow id="f_5" type="car" route="r_5" begin="0.00" end="1607.0" number="5" />
  <route id="r_6" edges="-5095089#1 -5095089#0 670619383#0 670619383#1 670619383#3 670619383#4 670619383#5 481337812#0 481337812#1 481337812#3 481337812#4 481337812#6 481337812#7 237386420#1 237386420#2 237386421 1232571604 -4922743#4 -4922743#3 -4922743#2 -4922743#1 -4922743#0 149993777#0 149993777#1 -569215283#4 -569215283#3 -569215283#2 -569215283#1 -569215283#0 -29251742#3 -29251742#2 -29251742#1 -29251742#0 -1063018472 -669286590#3 -669286590#2 -669286590#1 -669286590#0 -669286593 1309404920#0 1309404920#1 1303806780 -1065527803#6 -1065527803#4 -1065527803#3 -1065527803#2 -1065527803#1 -1065527803#0 -1063052998 1065527805 149993728" />
  <flow id="f_6" type="car" route="r_6" begin="0.00" end="1607.0" number="2" />
  <route id="r_7" edges="-1172898744 -28119724#0 28119724#0 28119724#1 415399014#0 -559724882 -244415606#10 -244415606#9 -244415606#8 -244415606#7 -244415606#6 -244415606#5 -244415606#4 -244415606#3 -244415606#1 -244415606#0 29251657#1 29251657#3 -481337806#4 -481337806#3 -481337806#2 -481337806#1 -481337806#0 -846602462#8 -846602462#7 -846602462#6 -846602462#5 -846602462#4 -846602462#3 -846602462#2 -846602462#1 -846602462#0 -846602463 -670619382#10 -670619382#9 -670619382#8 -670619382#7 -670619382#5 -670619382#4 5032423#0 5032423#1 5032423#2 5032423#3 5032423#4 5032423#5 5032423#6 5032423#7 5032423#8 5032423#9 5032423#10 5032423#12 5032425#0 5032425#1 5032425#2 5032425#3 5032425#4 1356154565#0 -5032425#5 -5032425#4" />
  <flow id="f_7" type="car" route="r_7" begin="0.00" end="1607.0" number="2" />
  <route id="r_8" edges="481337806#1 481337806#2 481337806#3 481337806#4 -481337806#4 -481337806#3 -481337806#2 -481337806#1 -1227135710#4 -1227135710#3 -1227135710#2 -1227135710#1 23907727 747485922 747485923#1 747485923#2 846602452#3 846602451 569341845#0 569341845#1 569341845#2 569341845#3 1409748513#0 1409748513#1 670821763#0 -22952865#3 -22952865#2 -22952865#1 -22952865#0 22952865#0 22952865#1 22952865#2 22952865#3" />
  <flow id="f_8" type="car" route="r_8" begin="0.00" end="1607.0" number="4" />
  <route id="r_9" edges="-5095091#2 -5032424#2 -5032424#1 -1303599894#3 -1303599894#2 -1303599894#1 1303599897#0 1303599897#1 670619383#0 670619383#1 670619383#3 670619383#4 670619383#5 481337812#0 481337812#1 481337812#3 481337812#4 481337812#6 481337812#7 237386420#1 237386420#2 237386421 1232571604 29251749#0" />
  <flow id="f_9" type="car" route="r_9" begin="0.00" end="1607.0" number="6" />
  <route id="r_10" edges="572418970#0 -572418970#0 -5032427#2 -5032427#1 1303596581#0 1303596581#1 1303596581#2 4308743#2 4308743#3 4308743#4 1303599897#0 1303599897#1 670619383#0 670619383#1 670619383#3 670619383#4 670619383#5 481337812#0 481337812#1 481337812#3 481337812#4 481337812#6 481337812#7 237386420#1 237386420#2 237386421 1232571604 -4922743#4 -4922743#3 -4922743#2 -4922743#1 -4922743#0 149993777#0 149993777#1 -569215283#4 -569215283#3 -569215283#2 -569215283#1 -569215283#0 -29251742#3 -29251742#2 -29251742#1 -29251742#0 -1063018472" />
  <flow id="f_10" type="car" route="r_10" begin="0.00" end="1607.0" number="3" />
  <route id="r_11" edges="572403485 -5032425#6 -5032425#5 -5032425#4 -5032425#3 -5032425#2 -5032425#1 -5032425#0 -5032423#12 5032423#12" />
  <flow id="f_11" type="car" route="r_11" begin="0.00" end="1607.0" number="15" />
  <route id="r_12" edges="-894824365 -415399013#1 -415399013#0 -559724882 244415606#11 883216502#0 883216502#1 669286591#1 669286591#2 1305808236 -4794353#17 -4794353#16 -4794353#15 -4794353#14 -4794353#13 -4794353#12 -4794353#11 -4794353#10" />
  <flow id="f_12" type="car" route="r_12" begin="0.00" end="1607.0" number="8" />
  <route id="r_13" edges="894832085 -5095099#7 -5095099#6 -5095099#5 -5095099#4 -5095099#3 -5095099#1 -5095099#0 -894826877" />
  <flow id="f_13" type="car" route="r_13" begin="0.00" end="1607.0" number="16" />
  <route id="r_14" edges="-20284012#0 20284012#0 20284012#1 20515785#1 -20515785#1" />
  <flow id="f_14" type="car" route="r_14" begin="0.00" end="1607.0" number="30" />
  <route id="r_15" edges="669286590#3 629319407 29251742#0 29251742#1 29251742#2 29251742#3 569215283#0 569215283#1 569215283#2 569215283#3 569215283#4 -149993777#1 -149993777#0 4922743#0 4922743#1 4922743#2 4922743#3 4922743#4 -1232571604 -237386421 -237386420#2 -237386420#1 -481337812#7 -481337812#6 -481337812#4 -481337812#3 -481337812#2 -481337812#0 -670619383#10 -670619383#4 -670619383#3 -670619383#1 -670619383#0 -1303599897#1 -1303599897#0 1303599894#1 1303599894#2 37207110#0" />
  <flow id="f_15" type="car" route="r_15" begin="0.00" end="1607.0" number="3" />
  <route id="r_16" edges="572407443#0 -572407443#0 -5032428#4 -5095105#3 -5095105#2 -5095105#1 5095094 5095272#0 5095272#1 5095272#2 1232851061#1 617654364#0 617654364#1 617654364#2 617654364#3 705391619 616937688 -29251822#1 -29251822#0 5095084#0 5095084#1 5095084#2 5095084#3 5095084#4" />
  <flow id="f_16" type="car" route="r_16" begin="0.00" end="1607.0" number="6" />
  <route id="r_17" edges="225928466#0 225928466#1 225928466#2 569325553 617654364#0 617654364#1 617654364#2 617654364#3 225928461 1176115148#0 1176115148#1 5020042 1063001470 616937686 481337809 -657268860 -669286592#9 -669286592#8 -669286592#7 -669286592#6 -669286592#5 -669286592#4 -669286592#3 -669286592#1 -669286590#5 -669286590#4 -669286590#3 -669286590#2 -669286590#1 -669286590#0 -669286593 1309404920#0 1309404920#1 1303806780 -1065527803#6 -1065527803#4 -1065527803#3 -1065527803#2 -1065527803#1 -1065527803#0 -1063052998 1065527805 149993728 1303811463#0 1303811463#1 1303811453 693901125#1 693901125#2 1303811461 -94334002#6 -94334002#5 -94334002#4 -94334002#3 -94334002#2 1251617939#1 94334002#3 94334002#4 94334002#5 94334002#6" />
  <flow id="f_17" type="car" route="r_17" begin="0.00" end="1607.0" number="2" />
  <route id="r_18" edges="1061858542 1061858539 765145497 1061858538#0 1061858538#1 -120486481 5095081#2 5095081#3 29251425#1 29251425#2 29251425#3 29251425#4 29251425#5 29251425#6 29251425#7 29251425#8 29251425#9 29251425#10 29251425#11 29251425#12 29251425#13 29251425#14 29251425#15 670619382#0 670619382#1 670619382#3 670619382#4 670619382#5 670619382#7 670619382#8 670619382#9 670619382#10 846602463 846602462#0 846602462#1 846602462#2 846602462#3 846602462#4 846602462#5 846602462#6 846602462#7 846602462#8 481337806#0 481337806#1 481337806#2 481337806#3 481337806#4 617654360#0 617654360#1 589080682 589080683#0 244415606#0 244415606#1" />
  <flow id="f_18" type="car" route="r_18" begin="0.00" end="1607.0" number="2" />
  <route id="r_19" edges="617654361#0 617654361#1 617654361#2 29251406#0 29251406#1 29251406#2 29251406#3 1024502008#0 1024502008#1 1024502008#2 1024502008#3 1303594730 4308740#0" />
  <flow id="f_19" type="car" route="r_19" begin="0.00" end="1607.0" number="11" />
  <route id="r_20" edges="670619382#4 670619382#5 670619382#7 670619382#8 670619382#9 670619382#10 846602463 846602462#0 -846602462#0 -846602463 -670619382#10 -670619382#9 -670619382#8 -670619382#7 -670619382#5 -670619382#4 -670619382#3 -670619382#1 -670619382#0 -29251425#15 -29251425#14 -29251425#13 -29251425#12 -29251425#11 -29251425#10 -29251425#9 -29251425#8 -29251425#7 -29251425#6 -29251425#5 -29251425#4 -29251425#3 29251425#3" />
  <flow id="f_20" type="car" route="r_20" begin="0.00" end="1607.0" number="4" />
  <route id="r_21" edges="5032425#2 5032425#3 -5095105#4 -5095105#3 -5095105#2 -5095105#1 5095094 5095272#0 5095272#1 5095272#2 1232851061#1 617654364#0 617654364#1 617654364#2 617654364#3 225928461 1176115148#0 1176115148#1 5020042 1063001470 616937686 481337809 -657268860 -669286592#9 -669286592#8 -669286592#7 -669286592#6 -669286592#5 -669286592#4 -669286592#3 -669286592#1 -669286590#5 -669286590#4 -669286590#3 -669286590#2 -669286590#1 -669286590#0 -669286593 1309404920#0 1309404920#1 1303806780 -1065527803#6 -1065527803#4 -1065527803#3 -1065527803#2 -1065527803#1 -1065527803#0 -1063052998 1065527805 149993728 1303811463#0 1303811463#1 1065527812#0 1065527812#1 1237164841 -1237164841" />
  <flow id="f_21" type="car" route="r_21" begin="0.00" end="1607.0" number="2" />
  <route id="r_22" edges="-5095099#7 97654127 1303594725 1303594723 -5095094 -29251424 567881809#1 1303596581#0 1303596581#1 1303596581#2 4308743#2 4308743#3 4308743#4 1303599897#0 1303599897#1 5095089#0 5095089#1 -5032423#4 -5032423#3 -5032423#2 -5032423#1 -5032423#0 -670619382#3 -670619382#1 -670619382#0" />
  <flow id="f_22" type="car" route="r_22" begin="0.00" end="1607.0" number="6" />
  <route id="r_23" edges="-149993777#0 4922743#0 4922743#1 4922743#2 4922743#3 4922743#4 -1232571604 -237386421 -237386420#2 -237386420#1 -481337812#7 -481337812#6 -481337812#4 -481337812#3 -481337812#2 -481337812#0 -29251425#15 -29251425#14 -29251425#13 -29251425#12 -29251425#11 -29251425#10 -29251425#9 -29251425#8 -29251425#7 4922728#0 4922728#1 4922728#3 4922728#4 5032427#1 5032427#2 572418970#0 -126575137#2 -5095105#2" />
  <flow id="f_23" type="car" route="r_23" begin="0.00" end="1607.0" number="4" />
  <route id="r_24" edges="-23090387#0 890256469#3 -23090403 415399014#0 -559724882 244415606#11 883216502#0 883216502#1 669286591#1 669286591#2 669286591#4 669286591#5 669286593 669286590#0 669286590#1 669286590#2 669286590#3 669286590#4 669286590#5 -669286590#5 -669286590#4" />
  <flow id="f_24" type="car" route="r_24" begin="0.00" end="1607.0" number="7" />
  <route id="r_25" edges="4588984#0 4588984#1 4588984#2 4588984#3 1065527808 29251656#1 846602461 846602460 846604781 846604780 908386626 846602452#0 846602452#1 846602452#2 846602452#3 846602451 569341845#0 569341845#1 569341845#2 569341845#3 1409748513#0 1409748513#1 572391290 842265841 1123244175 156572893#0 156572893#1 568988340 568988339 670619386 670821765#0 670821765#1 670821765#2 1063001474#0 1063001474#1 934051740#0 934051740#1 934051740#2 834542158#0 834542158#1 834542158#2 216702187#0 216702187#1 569322627#0 1303179367#0 1303179367#1 1303179367#2 156207978#0 156207978#1 156207978#2 156207978#3 559794568#0 -98719087#0" />
  <flow id="f_25" type="car" route="r_25" begin="0.00" end="1607.0" number="2" />
  <route id="r_26" edges="1024502008#0 1024502008#1 1024502008#2 1024502008#3 -29251425#2 -29251425#1 -29251425#0 -5095081#2 617654364#0 617654364#1 100466625 1061858539 765145497 1061858538#0 1061858538#1 225928466#0 225928466#1 225928466#2 5056162#0 5056162#1 5056162#2 -5056162#2 -5056162#1" />
  <flow id="f_26" type="car" route="r_26" begin="0.00" end="1607.0" number="6" />
  <route id="r_27" edges="-617654357#7 -617654357#6 -617654357#5 -617654357#4 -617654357#3 -617654357#2 -617654357#1 -617654357#0 -1232571604 -237386421 -237386420#2 -237386420#1 -481337812#7 -481337812#6 -481337812#4 -481337812#3 -481337812#2 -481337812#0 670619382#0 670619382#1 670619382#3 670619382#4 670619382#5 670619382#7 670619382#8 670619382#9 670619382#10 846602463 846602462#0 846602462#1 846602462#2 846602462#3 846602462#4 846602462#5 846602462#6 846602462#7" />
  <flow id="f_27" type="car" route="r_27" begin="0.00" end="1607.0" number="4" />
  <route id="r_28" edges="-481337812#4 -481337812#3 481337812#3 481337812#4 481337812#6 481337812#7 237386420#1 237386420#2 237386421 1232571604 29251749#0 29251749#1 29251749#2 567879770#0 567879770#1 1232583601#0 1232583601#1 5095084#0 5095084#1 5095084#2 5095084#3" />
  <flow id="f_28" type="car" route="r_28" begin="0.00" end="1607.0" number="7" />
  <route id="r_29" edges="-4794353#5 -4794353#4 -4794353#3 -4794353#2 -4794353#0 4922744#0 4922744#1 1063018471 29251606#0 29251606#1 4922743#0 4922743#1 4922743#2 4922743#3 4922743#4 29251749#0 29251749#1 29251749#2 567879770#0 567879770#1 1232583601#0 1232583601#1 -4588969#1 -4588969#0 4588977#0 4588977#1 -705391619 225928461 1176115146 834542166 1061858544 1061858543#0 1061858543#1 1061858543#2 1061858542" />
  <flow id="f_29" type="car" route="r_29" begin="0.00" end="1607.0" number="4" />
  <route id="r_30" edges="98184396#2 98184396#3 -98184394 -927648846 927648846 98184394 -98184396#3 -98184396#2 -98184396#1 -705356175#6 -705356175#5 -705356175#4 -705356175#3 -705356175#2 -705356175#1 -705356175#0 705356174#1 705356174#2 705356174#3 705356174#4 705356174#5 705356174#6 -149993688#14 -149993688#11 -149993688#10 -149993688#9 -149993688#8 -149993688#7 -149993688#6 -149993688#5 -149993688#4 -149993688#3 -149993688#2 -149993688#1 -149993688#0 585294582#1 169059372 398689855#0 398689855#1 398689855#2 398689855#3 398689855#4 398689857 547157509 846602452#0 846602452#1 846602452#2 846602452#3 846602451 569341845#0 569341845#1 569341845#2 569341845#3 1409748513#0 1409748513#1 572391290 842265841 1123244175 156572893#0 156572893#1 568988340 568988339 670619386 670821765#0 670821765#1 670821765#2 1063001474#0 1063001474#1 934051740#0 934051740#1 934051740#2 569325553 617654364#0 617654364#1 617654364#2 617654364#3 705391619 616937688 -29251822#1 -29251822#0 -4588969#1 -4588969#0 4588977#0 4588977#1" />
  <flow id="f_30" type="car" route="r_30" begin="0.00" end="1607.0" number="1" />
  <route id="r_31" edges="24987926#3 1231852821 1303811457#0 1303811457#1 1303811457#2 1303811464 -1303811463#1 -1303811463#0 20283951#0 20283951#1 20283951#2 20283958#0 20283958#1 436980576 883216502#1 669286591#1 669286591#2 669286591#4 669286591#5 669286593 669286590#0 669286590#1 669286590#2 669286590#3 629319407 29251742#0 29251742#1 29251742#2 29251742#3 569215283#0 569215283#1 569215283#2 569215283#3 569215283#4 -149993777#1 -149993777#0 4922743#0 4922743#1 4922743#2" />
  <flow id="f_31" type="car" route="r_31" begin="0.00" end="1607.0" number="3" />
  <route id="r_32" edges="639876351 24987936#0 24987936#1 24987936#2 824295756 1303811457#0 1303811457#1 1303811457#2 1303811464 -1303811463#1 -1303811463#0 20283951#0 20283951#1 20283951#2 20283958#0 20283958#1 436980576 883216502#1 669286591#1 669286591#2 1305808236 -4794353#17 -4794353#16 -4794353#15 -4794353#14 -4794353#13 -4794353#12 -4794353#11 -4794353#10 -4794353#9 4922737 -4922746#4 -4922746#3 -4922746#2 -4922746#1 -4922746#0 1063018471 -1307487787#1 -1307487787#0 565965575#0 565965575#1 565965575#2" />
  <flow id="f_32" type="car" route="r_32" begin="0.00" end="1607.0" number="3" />
  <route id="r_33" edges="-5095103#0 -846602462#0 -846602463 -670619382#10 -670619382#9 -670619382#8 -670619382#7 -670619382#5 -670619382#4 -670619382#3 -670619382#1 -670619382#0 481337812#0 481337812#1 29251820#0 29251820#2 29251820#3 29251820#4 29251820#5 29251820#6 29251820#7 29251820#8 291281065#1 -1200993139" />
  <flow id="f_33" type="car" route="r_33" begin="0.00" end="1607.0" number="6" />
  <route id="r_34" edges="-759939609#0 -649755476#0 -4351562 669286592#0 -1237157417 -617654357#16 -617654357#14 -617654357#12 -617654357#11 -617654357#10 -617654357#9" />
  <flow id="f_34" type="car" route="r_34" begin="0.00" end="1607.0" number="13" />
  <route id="r_35" edges="670821763#1 568988336#0 568988336#1 568988336#2 216702188#0 216702188#1 569325550 569188755 670821765#0 670821765#1 670821765#2 1063001474#0 1063001474#1 934051740#0 934051740#1 934051740#2 569325553 617654364#0 617654364#1 617654364#2 617654364#3 225928461 1176115148#0 1176115148#1 5020042 1063001470 616937686 481337809 -657268860 -669286592#9 -669286592#8 -669286592#7 -669286592#6 -669286592#5 -669286592#4 -669286592#3 -669286592#1 -669286590#5 -669286590#4 -669286590#3 -669286590#2 -669286590#1 -669286590#0 -669286593 1309404920#0 1309404920#1 1303806780 -1065527803#6 -1065527803#4 -1065527803#3 -1065527803#2 -1065527803#1 -1065527803#0 -1063052998 1065527805 149993728 1303811463#0 1303811463#1 1303811453 693901125#1 693901125#2 -824295756" />
  <flow id="f_35" type="car" route="r_35" begin="0.00" end="1607.0" number="2" />
  <route id="r_36" edges="481337812#1 481337812#3 481337812#4 481337812#6 481337812#7 237386420#1 237386420#2 237386421 1232571604 -4922743#4 -4922743#3 -4922743#2 -4922743#1 -4922743#0 149993777#0 149993777#1 -569215283#4 -569215283#3 -569215283#2 -569215283#1 -569215283#0 -29251742#3 -29251742#2 -29251742#1 -29251742#0 -1063018472 -669286590#3 -669286590#2 -669286590#1 -669286590#0 -669286593 1309404920#0 1309404920#1 1303806780 -1065527803#6 1065527803#6" />
  <flow id="f_36" type="car" route="r_36" begin="0.00" end="1607.0" number="4" />
  <route id="r_37" edges="824295757 -824295757 415399014#0 -559724882 -244415606#10 -244415606#9 -244415606#8 -244415606#7 -244415606#6 -244415606#5 -244415606#4 -244415606#3 -244415606#1 -244415606#0 29251657#1 29251657#3 -481337806#4 -481337806#3 -481337806#2 -481337806#1 -481337806#0 -846602462#8 -846602462#7 -846602462#6 -846602462#5 -846602462#4 -846602462#3 -846602462#2 -846602462#1 -846602462#0 -846602463 -670619382#10 -670619382#9 -670619382#8 -670619382#7 -670619382#5 -670619382#4 5032423#0 5032423#1 5032423#2 5032423#3 5032423#4 -5095089#1 -5095089#0 -1303599897#1 -1303599897#0 1303599894#1" />
  <flow id="f_37" type="car" route="r_37" begin="0.00" end="1607.0" number="3" />
  <route id="r_38" edges="-617654357#4 -617654357#3 -617654357#2 -617654357#1 -617654357#0 -1232571604 -237386421 -237386420#2 -237386420#1 -481337812#7 -481337812#6 -481337812#4 -481337812#3 -481337812#2 -481337812#0 -29251425#15 -29251425#14 -29251425#13 -29251425#12 -29251425#11 -29251425#10 -29251425#9 -29251425#8 -29251425#7 4922728#0 4922728#1 4922728#3 4922728#4 -567881809#1" />
  <flow id="f_38" type="car" route="r_38" begin="0.00" end="1607.0" number="5" />