<?xml version="1.0" encoding="UTF-8"?>

<!-- generated on 2025-10-31 15:53:10 by Eclipse SUMO netedit Version 1.22.0
-->

<additional xmlns:xsi="http://www.w3.org/2001/XMLSchema-instance" xsi:noNamespaceSchemaLocation="http://sumo.dlr.de/xsd/additional_file.xsd">
    <!-- StoppingPlaces -->
    <!-- Jeepney Stops (length=10; jeepney length=5) -->

    <!-- 1  Krus na Ligas (Manansala St. after signal) -->      <busStop id="bs_1" lane="669286590#0_1" endPos="10" friendlyPos="true"/>
    <!-- 2  Barangay Hall of UP Campus (Ocampo St.) -->         <busStop id="bs_2" lane="669286590#1_1" endPos="10" friendlyPos="true"/>
    <!-- 3  Area 17 (Shed) -->                                  <busStop id="bs_3" lane="669286590#4_1" endPos="10" friendlyPos="true"/>
    <!-- 4  Pook Aguinaldo -->                                  <busStop id="bs_4" lane="669286592#0_1" endPos="10" friendlyPos="true"/>
    <!-- 5  Velasquez Gate -->                                  <busStop id="bs_5" lane="-617654357#16_1" endPos="10" friendlyPos="true"/>
    <!-- 6  NIGS -->                                            <busStop id="bs_6" lane="-617654357#16_1" startPos="-10" friendlyPos="true"/>
    <!-- 7  CS Library -->                                      <busStop id="bs_7" lane="-617654357#12_1" endPos="10" friendlyPos="true"/>
    <!-- 8  EEEI/Marine Science -->                             <busStop id="bs_8" lane="-617654357#7_1" endPos="10" friendlyPos="true"/>
    <!-- 9  NISMED (Velasquez St.) -->                          <busStop id="bs_9" lane="-617654357#1_1" startPos="-15" endPos="-5" friendlyPos="true"/>
    <!-- 10 NSRI (Quirino Avenue) -->                           <busStop id="bs_10" lane="29251749#1_1" startPos="20" endPos="30" friendlyPos="true"/>
    <!-- 11 Kamia Residence Hall -->                            <busStop id="bs_11" lane="567879770#0_1" endPos="10" friendlyPos="true"/>
    <!-- 12 UPIS (Africa St.) -->                               <busStop id="bs_12" lane="5095092#0_1" endPos="10" friendlyPos="true"/>
    <!-- 13 College of Education (Africa St.) -->               <busStop id="bs_13" lane="5095092#3_1" endPos="10" friendlyPos="true"/>
    <!-- 14 Vinzon’s Hall -->                                   <busStop id="bs_14" lane="617654361#0_1" endPos="10" friendlyPos="true"/>
    <!-- 15 Economics -->                                       <busStop id="bs_15" lane="29251406#1_1" startPos="-10" friendlyPos="true"/>
    <!-- 16 Asian Center/Law Center -->                         <busStop id="bs_16" lane="1024502008#3_1" endPos="10" friendlyPos="true"/>
    <!-- 17 Ilang-Ilang Residence Hall/Balay Kalinaw -->        <busStop id="bs_17" lane="4308740#3_1" endPos="10" friendlyPos="true"/>
    <!-- 18 Church of the RisenLord/Infirmary -->               <busStop id="bs_18" lane="567881809#1_1" startPos="90" endPos="100" friendlyPos="true"/>
    <!-- 19 Shopping Center (corner Apacible St.) -->           <busStop id="bs_19" lane="4308743#2_1" startPos="10" endPos="20" friendlyPos="true"/>
    <!-- 20 Area 2 (Laurel/Roces) -->                           <busStop id="bs_20" lane="4308743#4_1" startPos="80" endPos="90" friendlyPos="true"/>
    <!-- 21 Kalayaan Residence Hall -->                         <busStop id="bs_21" lane="670619383#1_1" startPos="10" endPos="20" friendlyPos="true"/>
    <!-- 22 Molave-Yakal (Roces cor. Magsaysay) -->             <busStop id="bs_22" lane="670619383#4_1" startPos="60" endPos="70" friendlyPos="true"/>
    <!-- 23 Molave Residence Hall (Magsaysay St.) -->           <busStop id="bs_23" lane="670619382#1_1" endPos="10" friendlyPos="true"/>
    <!-- 24 Bahay ng Alumni -->                                 <busStop id="bs_24" lane="670619382#3_1" startPos="-10" friendlyPos="true"/>
    <!-- 25 Ylanan -->                                          <busStop id="bs_25" lane="846602463_1" startPos="5" endPos="15" friendlyPos="true"/>
    <!-- 26 Women’s/CSWCD -->                                   <busStop id="bs_26" lane="846602462#4_1" startPos="-15" endPos="-5" friendlyPos="true"/>
    <!-- 27 CHK/Gym -->                                         <busStop id="bs_27" lane="846602462#8_1" endPos="10" friendlyPos="true"/>
    <!-- 28 ISSI/NCPAG -->                                      <busStop id="bs_28" lane="481337806#2_1" endPos="10" friendlyPos="true"/>
    <!-- 29 Checkpoint (University Avenue) -->                  <busStop id="bs_29" lane="670619396#2_1" endPos="10" friendlyPos="true"/>
    <!-- 30 Fine Arts/CMO/ Lakandula St. -->                    <busStop id="bs_30" lane="4794353#2_1" endPos="10" friendlyPos="true"/>
    <!-- 31 GyudFood -->                                        <busStop id="bs_31" lane="4794353#5_1" endPos="10" friendlyPos="true"/>
    <!-- 32 Mang Larry’s/Village B -->                          <busStop id="bs_32" lane="4794353#8_1" endPos="10" friendlyPos="true"/>
    <!-- 33 Hardin ng Dona Aurora/Village A -->                 <busStop id="bs_33" lane="4794353#10_1" startPos="-10" friendlyPos="true"/>
    <!-- 34 Centennial Residence Hall -->                       <busStop id="bs_34" lane="4794353#15_1" startPos="10" endPos="20" friendlyPos="true"/>
    <!-- 35 KNL Playground -->                                  <busStop id="bs_35" lane="669286591#5_1" endPos="10" friendlyPos="true"/>
    <!-- 36 KNL Arko -->                                        <busStop id="bs_36" lane="669286593_1" endPos="10" friendlyPos="true"/>
    
    <!-- Shapes -->
    <poly id="100466600" type="building.public" color="255,230,230" fill="1" layer="-1.00" shape="2373.506539,1170.471242 2392.620778,1170.629714 2392.339323,1203.432880 2375.293829,1203.290028 2373.225110,1203.274412 2373.506539,1170.471242"/>
    <poly id="100466607" type="building.office" color="255,230,230" fill="1" layer="-1.00" shape="2283.911402,1202.218825 2284.639998,1123.187507 2344.482874,1123.718985 2343.719780,1207.586581 2343.708581,1208.803980 2343.490113,1232.532180 2389.411801,1232.938620 2389.075591,1269.438428 2364.520086,1269.215558 2364.330451,1289.999851 2387.302013,1290.202982 2386.753585,1349.899749 2370.990278,1349.757081 2371.128480,1334.329358 2350.548950,1334.150178 2350.490089,1341.166771 2325.600686,1340.946788 2325.521085,1349.324725 2287.087995,1348.987546 2287.188090,1337.953498 2277.544800,1337.869510 2277.944751,1294.950625 2274.410714,1294.925347 2274.489829,1286.492080 2282.398394,1286.557622 2282.541345,1271.694237 2313.712469,1271.971439 2313.858969,1256.255914 2305.249958,1256.174183 2305.348609,1246.235723 2313.946757,1246.306480 2314.039532,1236.943522 2317.088693,1236.961863 2317.115746,1233.807711 2332.954544,1233.949713 2333.238028,1202.662613 2283.911402,1202.218825"/>
    <poly id="100466612" type="building.office" color="255,230,230" fill="1" layer="-1.00" shape="2401.558772,1154.905883 2402.104376,1117.684986 2416.607937,1117.904797 2416.247212,1142.652302 2431.019991,1142.858765 2430.845761,1155.320995 2407.926910,1154.995628 2401.558772,1154.905883"/>
    <poly id="100466620" type="building.public" color="255,230,230" fill="1" layer="-1.00" shape="2403.564794,1194.451169 2404.003584,1171.285492 2445.414256,1172.062380 2444.964653,1195.228144 2403.564794,1194.451169"/>
    <poly id="102676442" type="building.yes" color="255,230,230" fill="1" layer="-1.00" shape="1369.757572,1352.589481 1371.680096,1351.886939 1373.358901,1350.400762 1374.261098,1348.810553 1374.610276,1346.804543 1374.248429,1344.804606 1373.285936,1343.119660 1371.723173,1341.793968 1369.810097,1341.079922 1367.762830,1341.053144 1365.840116,1341.733554 1364.384710,1342.885830 1363.289543,1344.588352 1362.843219,1346.573059 1363.493201,1349.511183 1364.724456,1351.127435 1366.436057,1352.219460 1368.433049,1352.667193 1369.757572,1352.589481"/>
    <poly id="102676442#1" type="man_made.tower" color="255,230,230" fill="1" layer="-1.00" shape="1369.757572,1352.589481 1371.680096,1351.886939 1373.358901,1350.400762 1374.261098,1348.810553 1374.610276,1346.804543 1374.248429,1344.804606 1373.285936,1343.119660 1371.723173,1341.793968 1369.810097,1341.079922 1367.762830,1341.053144 1365.840116,1341.733554 1364.384710,1342.885830 1363.289543,1344.588352 1362.843219,1346.573059 1363.493201,1349.511183 1364.724456,1351.127435 1366.436057,1352.219460 1368.433049,1352.667193 1369.757572,1352.589481"/>
    <poly id="102676442#2" type="tourism.attraction" color="207,245,201" fill="1" layer="-2.00" shape="1369.757572,1352.589481 1371.680096,1351.886939 1373.358901,1350.400762 1374.261098,1348.810553 1374.610276,1346.804543 1374.248429,1344.804606 1373.285936,1343.119660 1371.723173,1341.793968 1369.810097,1341.079922 1367.762830,1341.053144 1365.840116,1341.733554 1364.384710,1342.885830 1363.289543,1344.588352 1362.843219,1346.573059 1363.493201,1349.511183 1364.724456,1351.127435 1366.436057,1352.219460 1368.433049,1352.667193 1369.757572,1352.589481"/>
    <poly id="1039271207" type="building.yes" color="255,230,230" fill="1" layer="-1.00" shape="2023.792795,2050.559066 2021.195888,2046.707942 2017.960616,2048.860255 2020.568296,2052.711287 2023.792795,2050.559066"/>
    <poly id="104474560" type="building.yes" color="255,230,230" fill="1" layer="-1.00" shape="1369.588183,2122.152215 1386.799408,2096.364155 1403.961323,2107.671294 1398.961760,2115.161738 1388.792455,2130.398613 1386.750091,2133.459342 1369.588183,2122.152215"/>
    <poly id="104474560#1" type="shop.hairdresser" color="237,199,255" fill="1" layer="-1.00" shape="1369.588183,2122.152215 1386.799408,2096.364155 1403.961323,2107.671294 1398.961760,2115.161738 1388.792455,2130.398613 1386.750091,2133.459342 1369.588183,2122.152215"/>
    <poly id="104749028" type="building.office" color="255,230,230" fill="1" layer="-1.00" shape="500.854171,811.272186 527.471470,815.636574 526.343290,818.512469 528.100003,821.086969 528.427788,825.389026 526.725340,829.144098 524.143663,830.881539 521.644851,843.540904 524.256939,844.093967 519.828751,867.969171 464.268102,858.109487 468.873225,831.001330 504.402549,838.089089 505.949483,830.019414 497.239525,828.245991 500.854171,811.272186"/>
    <poly id="104749029" type="landuse.commercial" color="209,209,204" fill="1" layer="-3.00" shape="532.181527,876.163137 510.623128,984.301683 493.206357,981.108951 446.165353,973.422782 445.194236,973.254048 434.792911,971.495161 435.675990,965.168611 436.211334,957.240402 437.874133,932.536767 442.308106,909.347608 455.128703,879.125691 458.909546,870.228997 459.764916,868.207557 461.908822,863.164978 532.181527,876.163137"/>
    <poly id="104749030" type="building.public" color="255,230,230" fill="1" layer="-1.00" shape="475.360716,932.934577 455.338037,928.657565 454.080685,934.057736 450.604839,933.290760 446.435501,954.673807 479.517555,960.343853 478.833603,967.277349 479.663758,971.110306 482.763051,973.197429 488.263607,973.869580 493.535608,970.504419 496.736888,954.330942 508.090629,956.590748 509.198829,950.129476 509.223246,942.924975 506.947382,938.860951 503.305437,936.313685 504.132005,932.189859 510.098959,903.066999 504.021233,901.680468 506.840199,886.152130 483.965261,880.958894 478.774069,882.442056 474.766042,886.205838 473.657611,891.383400 474.551459,895.105146 480.888782,901.635368 473.346208,901.556186 469.976449,918.184839 477.914873,920.451791 475.360716,932.934577"/>
    <poly id="104749032" type="landuse.commercial" color="209,209,204" fill="1" layer="-3.00" shape="461.908822,863.164978 532.181527,876.163137 546.317062,804.508116 508.180930,797.486907 485.828223,819.280375 476.783405,827.458615 467.856827,830.578453 461.908822,863.164978"/>
    <poly id="105573024" type="leisure.garden" color="207,245,201" fill="1" layer="-2.00" shape="257.739316,1375.238198 320.185081,1416.655197 320.845148,1418.243108 320.103759,1419.732386 317.331609,1420.608307 307.495596,1419.420103 297.851444,1416.736276 289.263853,1412.881396 281.535354,1408.698213 274.976658,1403.984861 268.515523,1398.086555 263.977515,1392.813594 260.305061,1387.964795 256.738438,1382.893758 254.446750,1378.243366 254.321723,1376.230333 255.702337,1375.156091 257.739316,1375.238198"/>
    <poly id="105573025" type="leisure.garden" color="207,245,201" fill="1" layer="-2.00" shape="334.295653,1411.255334 257.758567,1358.660386 267.568626,1341.766105 345.381903,1394.925591 334.295653,1411.255334"/>
    <poly id="105573377" type="building.yes" color="255,230,230" fill="1" layer="-1.00" shape="1509.085256,2229.533438 1520.919249,2219.992687 1516.019361,2206.356401 1500.533138,2219.679874 1509.085256,2229.533438"/>
    <poly id="105573378" type="building.yes" color="255,230,230" fill="1" layer="-1.00" shape="1463.313615,2245.240377 1478.550894,2269.622408 1492.740580,2262.175209 1503.553727,2274.388744 1477.726548,2287.889098 1466.778057,2271.183749 1462.668852,2273.177615 1451.099019,2254.363886 1450.006435,2252.580455 1463.313615,2245.240377"/>
    <poly id="106351143" type="building.yes" color="255,230,230" fill="1" layer="-1.00" shape="2358.035233,1162.867339 2392.709909,1163.369406 2392.838706,1154.437736 2358.164111,1153.946733 2358.035233,1162.867339"/>
    <poly id="106351144" type="building.yes" color="255,230,230" fill="1" layer="-1.00" shape="2421.864072,1122.795742 2421.858354,1110.711297 2434.108262,1110.706808 2434.113975,1122.791252 2421.864072,1122.795742"/>
    <poly id="106355363" type="building.yes" color="255,230,230" fill="1" layer="-1.00" shape="1528.522221,2189.351157 1554.813293,2208.714266 1536.098645,2233.817850 1527.913190,2227.790138 1517.784382,2201.095830 1524.048522,2195.343112 1528.522221,2189.351157"/>
    <poly id="106355364" type="building.yes" color="255,230,230" fill="1" layer="-1.00" shape="1450.088844,2254.660244 1441.758454,2259.412525 1439.601538,2255.369564 1429.932979,2261.118197 1443.534436,2283.179165 1461.658678,2273.473973 1450.088844,2254.660244"/>
    <poly id="1064989425" type="landuse.residential" color="white" fill="1" layer="0.00" shape="2356.490413,2094.958592 2341.478604,2062.783457 2400.378658,2023.660823 2427.105823,2023.433575 2501.832274,2042.607205 2470.360749,2096.856559 2409.698897,2099.817969 2356.490413,2094.958592"/>
    <poly id="1064989425#1" type="leisure.golf_course" color="white" fill="1" layer="0.00" shape="2356.490413,2094.958592 2341.478604,2062.783457 2400.378658,2023.660823 2427.105823,2023.433575 2501.832274,2042.607205 2470.360749,2096.856559 2409.698897,2099.817969 2356.490413,2094.958592"/>
    <poly id="1064989427" type="leisure.golf_course" color="white" fill="0" layer="0.00" shape="2465.716031,1976.294509 2456.882694,1956.129165"/>
    <poly id="1064990591" type="landuse.residential" color="white" fill="1" layer="0.00" shape="2365.190635,1962.652214 2419.367648,1843.161422 2454.972308,1816.299426 2451.621773,1932.912331 2394.975843,1982.495508 2365.190635,1962.652214"/>
    <poly id="1064990591#1" type="leisure.golf_course" color="white" fill="1" layer="0.00" shape="2365.190635,1962.652214 2419.367648,1843.161422 2454.972308,1816.299426 2451.621773,1932.912331 2394.975843,1982.495508 2365.190635,1962.652214"/>
    <poly id="1064991951" type="natural.tree_row" color="140,196,107" fill="0" layer="-4.00" shape="2222.471533,2059.911676 2270.867936,1999.342877 2283.306493,1975.975473"/>
    <poly id="106624387" type="building.yes" color="255,230,230" fill="1" layer="-1.00" shape="1485.904654,2264.048498 1466.956011,2244.091549 1473.009688,2240.188710 1492.696164,2260.759083 1485.904654,2264.048498"/>
    <poly id="106625089" type="amenity.fire_station" color="237,199,199" fill="1" layer="-1.00" shape="1076.528788,2357.862308 1084.497445,2377.569900 1067.876120,2384.108592 1059.468613,2364.736755 1076.528788,2357.862308"/>
    <poly id="106625089#1" type="building.yes" color="255,230,230" fill="1" layer="-1.00" shape="1076.528788,2357.862308 1084.497445,2377.569900 1067.876120,2384.108592 1059.468613,2364.736755 1076.528788,2357.862308"/>
    <poly id="106745486" type="landuse.commercial" color="209,209,204" fill="1" layer="-3.00" shape="1359.453668,2283.897673 1325.900668,2298.504482 1304.780693,2245.112287 1332.315710,2209.585953 1359.453668,2283.897673"/>
    <poly id="107436757" type="landuse.commercial" color="209,209,204" fill="1" layer="-3.00" shape="1409.516394,1994.967313 1498.812742,2005.625146 1560.417243,2012.070987 1500.119853,2055.235944 1409.516394,1994.967313"/>
    <poly id="107436757#1" type="shop.funeral_directors" color="237,199,255" fill="1" layer="-1.00" shape="1409.516394,1994.967313 1498.812742,2005.625146 1560.417243,2012.070987 1500.119853,2055.235944 1409.516394,1994.967313"/>
    <poly id="1074420838" type="landuse.commercial" color="209,209,204" fill="1" layer="-3.00" shape="2296.654279,990.288642 2278.626570,992.489197 2256.955684,993.237847 2248.577660,992.456977 2241.890224,987.766362 2239.824585,983.047511 2239.160326,946.744317 2238.969697,942.064852 2296.410838,943.911464 2296.654279,990.288642"/>
    <poly id="1074420839" type="landuse.commercial" color="209,209,204" fill="1" layer="-3.00" shape="2296.654279,990.288642 2296.410838,943.911464 2320.398144,944.426865 2383.588948,945.848548 2407.175938,946.168241 2407.009434,972.219927 2383.350418,977.367644 2360.881685,981.852353 2296.654279,990.288642"/>
    <poly id="1074420840" type="building.commercial" color="255,230,230" fill="1" layer="-1.00" shape="2274.001811,980.764943 2284.840505,980.772386 2284.858360,951.191767 2276.185259,951.188042 2276.187044,956.466696 2253.432312,956.460980 2253.431557,951.304046 2244.973919,951.298500 2244.966509,980.834771 2256.386957,980.837255 2256.392510,984.024330 2274.008114,984.040542 2274.001811,980.764943"/>
    <poly id="107509135" type="building.yes" color="255,230,230" fill="1" layer="-1.00" shape="1502.988513,585.145131 1504.481142,580.772220 1509.581305,582.499337 1508.088675,586.872247 1502.988513,585.145131"/>
    <poly id="1078362938" type="natural.tree_row" color="140,196,107" fill="0" layer="-4.00" shape="2222.680798,705.305056 2222.495469,779.805599"/>
    <poly id="1078362939" type="natural.tree_row" color="140,196,107" fill="0" layer="-4.00" shape="2222.033745,810.397040 2222.653750,933.981272"/>
    <poly id="1084436084" type="landuse.residential" color="235,235,227" fill="1" layer="-3.00" shape="635.512265,1952.822268 637.556613,2029.152535"/>
    <poly id="1084436085" type="landuse.residential" color="235,235,227" fill="1" layer="-3.00" shape="653.161991,2028.498593 728.325385,2025.497038 747.471731,2034.484922 771.349153,2059.987749 775.959579,2086.308627 776.591973,2102.272159"/>
    <poly id="1084436087" type="landuse.industrial" color="209,209,204" fill="1" layer="-3.00" shape="653.161991,2028.498593 651.305334,1953.948428 699.690219,1952.736817 784.727370,1950.303752 809.382183,1949.594507 812.802865,2010.585832 800.913623,2040.069240 795.365173,2053.894568 792.284655,2061.523646 788.849148,2070.472680 788.353731,2071.749572 784.074705,2082.841668 783.800681,2083.552272 781.524490,2089.492353 776.591973,2102.272159"/>
    <poly id="1097031479" type="landuse.residential" color="235,235,227" fill="1" layer="-3.00" shape="2475.809816,2319.632048 2442.348408,2317.183146 2443.392336,2349.997199 2444.598117,2354.966824 2475.809816,2319.632048"/>
    <poly id="1101863548" type="building.yes" color="255,230,230" fill="0" layer="-1.00" shape="510.343597,2380.908324 484.807864,2380.607373 484.736667,2386.119109 505.003696,2386.365680"/>
    <poly id="1101863549" type="building.mosque" color="255,230,230" fill="1" layer="-1.00" shape="484.774574,2399.321136 501.888315,2388.661054 484.918298,2388.452584 484.774574,2399.321136"/>
    <poly id="1101864375" type="building.yes" color="255,230,230" fill="1" layer="-1.00" shape="33.970434,2288.047502 41.894368,2304.955419 64.632928,2294.423700 56.709008,2277.515777 33.970434,2288.047502"/>
    <poly id="1103969455" type="leisure.park" color="207,245,201" fill="1" layer="-2.00" shape="641.122971,1481.308087 665.057696,1498.344526 687.693894,1466.954067 663.769934,1449.917512 641.122971,1481.308087"/>
    <poly id="1103969457" type="building.yes" color="255,230,230" fill="1" layer="-1.00" shape="629.053116,1457.065261 637.258808,1445.286564 638.426612,1438.238262 638.250938,1426.542480 655.970871,1428.692422 656.699633,1445.839244 652.582788,1454.495332 643.082087,1467.281108 629.053116,1457.065261"/>
    <poly id="1103969458" type="building.commercial" color="255,230,230" fill="1" layer="-1.00" shape="560.007778,1392.254230 599.259738,1420.203646 610.950482,1403.990596 571.698515,1376.041160 560.007778,1392.254230"/>
    <poly id="1104539410" type="amenity.stage" color="237,199,199" fill="1" layer="-1.00" shape="646.229630,1467.464391 649.069630,1469.476282 660.237712,1453.876394 657.397710,1451.864501 646.229630,1467.464391"/>
    <poly id="1104539410#1" type="building.roof" color="255,230,230" fill="1" layer="-1.00" shape="646.229630,1467.464391 649.069630,1469.476282 660.237712,1453.876394 657.397710,1451.864501 646.229630,1467.464391"/>
    <poly id="1104539411" type="amenity.shelter" color="237,199,199" fill="1" layer="-1.00" shape="664.089858,1478.444196 672.902509,1465.830323 659.495965,1456.582976 650.683221,1469.185789 664.089858,1478.444196"/>
    <poly id="1111250606" type="landuse.residential" color="235,235,227" fill="1" layer="-3.00" shape="1934.058931,55.495768 1952.760341,46.284282 1952.342468,38.961878 1996.952895,9.079234 2080.456100,-0.893688"/>
    <poly id="1111918337" type="waterway.drain" color="181,209,209" fill="0" layer="-4.00" shape="180.829502,867.834746 161.462374,897.249887"/>
    <poly id="1111918339" type="amenity.police" color="237,199,199" fill="1" layer="-1.00" shape="301.008363,1126.854984 310.154680,1129.266438 311.595035,1123.853615 302.459490,1121.442068 301.008363,1126.854984"/>
    <poly id="1111918339#1" type="shop.PCP № 2" color="237,199,255" fill="1" layer="-1.00" shape="301.008363,1126.854984 310.154680,1129.266438 311.595035,1123.853615 302.459490,1121.442068 301.008363,1126.854984"/>
    <poly id="1111918345" type="amenity.school" color="237,199,199" fill="0" layer="-2.00" shape="411.550961,997.612296 353.326624,988.694269"/>
    <poly id="1111918346" type="waterway.drain" color="181,209,209" fill="0" layer="-4.00" shape="340.451459,869.408176 330.739288,867.610213"/>
    <poly id="1111918347" type="waterway.drain" color="181,209,209" fill="0" layer="-4.00" shape="330.739288,867.610213 294.938292,866.534153 280.304014,864.933388 247.662738,857.920755 205.315295,857.343686 188.045464,861.243532 180.829502,867.834746"/>
    <poly id="1111932947" type="leisure.playground" color="207,245,201" fill="0" layer="-2.00" shape="845.039615,301.998991 846.711193,294.625482"/>
    <poly id="1111932948" type="leisure.playground" color="207,245,201" fill="0" layer="-2.00" shape="848.869403,288.719650 850.240974,284.059994"/>
    <poly id="1111932951" type="landuse.residential" color="235,235,227" fill="1" layer="-3.00" shape="710.944200,272.094312 737.887096,271.642294 737.579851,253.374166 710.636840,253.815116 710.944200,272.094312"/>
    <poly id="1111932952" type="building.apartments" color="255,230,230" fill="1" layer="-1.00" shape="710.957139,254.730892 711.094967,260.760944 735.892790,260.194495 735.754968,254.164444 710.957139,254.730892"/>
    <poly id="1111932953" type="building.yes" color="255,230,230" fill="1" layer="-1.00" shape="829.041813,298.472892 834.721862,298.700945 835.546251,277.944250 829.876970,277.716105 829.041813,298.472892"/>
    <poly id="1111932957" type="building.commercial" color="255,230,230" fill="1" layer="-1.00" shape="779.729685,289.920041 785.525405,289.815098 790.685579,289.726663 790.540737,281.616175 785.531392,281.703319 779.584839,281.809552 779.729685,289.920041"/>
    <poly id="1111936769" type="landuse.residential" color="235,235,227" fill="1" layer="-3.00" shape="5.074242,859.506565 45.831807,861.878660 103.450613,857.941910 128.791668,855.455586 135.475652,909.856531 121.303743,909.402809 83.715174,887.116825 44.409965,902.040242 21.573931,898.883335 8.334976,876.609528"/>
    <poly id="1115421071" type="building.construction" color="255,230,230" fill="1" layer="-1.00" shape="1444.653625,1625.910855 1526.504824,1626.263290 1526.582186,1607.560339 1446.702662,1607.224256 1446.666563,1616.874508 1444.694920,1616.869213 1444.653625,1625.910855"/>
    <poly id="1115421828" type="leisure.pitch" color="207,245,201" fill="1" layer="-2.00" shape="1050.800545,1625.061243 1176.322190,1623.378921 1177.196912,1725.669855 1170.627952,1739.880043 1161.100908,1748.338835 1145.732719,1752.808330 1087.042271,1759.662537 1062.891214,1757.567346 1053.321787,1749.736699 1050.800545,1625.061243"/>
    <poly id="1115421828#1" type="sport.baseball" color="79,230,125" fill="1" layer="-2.00" shape="1050.800545,1625.061243 1176.322190,1623.378921 1177.196912,1725.669855 1170.627952,1739.880043 1161.100908,1748.338835 1145.732719,1752.808330 1087.042271,1759.662537 1062.891214,1757.567346 1053.321787,1749.736699 1050.800545,1625.061243"/>
    <poly id="111573656" type="amenity.bank" color="237,199,199" fill="1" layer="-1.00" shape="1205.404476,2328.064219 1223.065737,2323.442302 1215.522528,2304.339694 1205.154564,2310.182940 1205.404476,2328.064219"/>
    <poly id="111573656#1" type="building.yes" color="255,230,230" fill="1" layer="-1.00" shape="1205.404476,2328.064219 1223.065737,2323.442302 1215.522528,2304.339694 1205.154564,2310.182940 1205.404476,2328.064219"/>
    <poly id="11166376" type="building.yes" color="255,230,230" fill="1" layer="-1.00" shape="749.564366,1460.215601 749.974269,1417.517570 707.748041,1417.126854 707.481990,1445.171626 703.128998,1445.131463 702.985128,1459.773666 749.564366,1460.215601"/>
    <poly id="11166377" type="building.yes" color="255,230,230" fill="1" layer="-1.00" shape="660.741092,1440.957479 706.549325,1440.686622 706.286410,1394.917862 660.467318,1395.188800 660.741092,1440.957479"/>
    <poly id="1123694249" type="amenity.parking" color="184,184,179" fill="1" layer="-1.00" shape="2373.410410,2126.021931 2373.139620,2119.517192 2393.203416,2118.671513 2393.474201,2125.176252 2373.410410,2126.021931"/>
    <poly id="1134293064" type="amenity.food_court" color="237,199,199" fill="1" layer="-1.00" shape="927.725387,845.153298 969.251524,845.461984 969.551363,806.206646 959.595361,806.125825 959.567264,810.397723 928.115385,810.146704 928.068135,815.957007 923.219463,815.921031 923.020191,840.479242 927.761126,840.516139 927.725387,845.153298"/>
    <poly id="1134293064#1" type="building.commercial" color="255,230,230" fill="1" layer="-1.00" shape="927.725387,845.153298 969.251524,845.461984 969.551363,806.206646 959.595361,806.125825 959.567264,810.397723 928.115385,810.146704 928.068135,815.957007 923.219463,815.921031 923.020191,840.479242 927.761126,840.516139 927.725387,845.153298"/>
    <poly id="1137769104" type="amenity.parking" color="184,184,179" fill="1" layer="-1.00" shape="1312.670575,1445.083675 1353.380720,1444.591998 1353.114072,1422.206840 1314.439999,1422.681116 1305.238223,1428.879491 1305.389655,1437.775627 1312.670575,1445.083675"/>
    <poly id="1137984136" type="building.roof" color="255,230,230" fill="1" layer="-1.00" shape="1926.625369,569.427710 1929.602509,566.038172 1931.138240,564.188072 1932.037492,562.243794 1932.280132,560.371505 1932.379796,558.157374 1935.504491,560.709244 1937.034631,559.467845 1938.706522,558.424434 1940.717287,557.953592 1942.714514,558.423510 1944.065524,558.921062 1945.204081,559.774549 1946.020848,560.796771 1948.487933,558.241560 1948.697304,560.054668 1949.387677,562.682596 1950.100196,564.115163 1951.597632,566.625556 1955.715832,569.445630 1948.943477,567.456000 1945.182178,566.060456 1944.708585,567.381391 1943.835906,568.650391 1942.186316,569.782143 1940.157020,570.607268 1938.509254,570.687696 1936.814720,570.336931 1935.678047,569.704757 1934.743149,568.727807 1933.858726,567.352036 1930.719769,568.186610 1926.625369,569.427710"/>
    <poly id="1148742288" type="leisure.garden" color="207,245,201" fill="1" layer="-2.00" shape="928.792276,1158.668479 928.759412,1159.863939 929.103231,1161.011910 929.801145,1161.990854 930.787567,1162.690666 931.932652,1163.046059 933.139061,1163.013601 934.309741,1162.583056 935.272605,1161.789095 935.909906,1160.721259 936.168819,1159.501731 935.996709,1158.274825 935.427032,1157.173053 934.514695,1156.317676 933.379058,1155.807271 932.182190,1155.695783 930.999411,1155.971501 929.981355,1156.611004 929.224412,1157.547066 928.792276,1158.668479"/>
    <poly id="1149352519" type="leisure.playground" color="207,245,201" fill="1" layer="-2.00" shape="1312.826674,659.939681 1349.653914,676.468330 1363.444585,646.150249 1326.617313,629.621575 1312.826674,659.939681"/>
    <poly id="1149352520" type="building.yes" color="255,230,230" fill="1" layer="-1.00" shape="1525.124711,952.052119 1563.804682,952.186881 1564.000014,899.309784 1525.319959,899.175011 1525.124711,952.052119"/>
    <poly id="1149352522" type="natural.shrubbery" color="140,196,107" fill="1" layer="-4.00" shape="2041.850473,1652.235622 2050.501507,1652.206220 2052.624056,1652.221345 2054.122686,1653.614018 2055.075383,1655.420797 2055.348255,1657.100568 2055.394174,1657.432170 2055.044950,1659.438164 2054.058144,1661.217193 2052.539980,1662.591290 2050.612475,1662.707301 2041.648465,1662.672971 2041.850473,1652.235622"/>
    <poly id="1149406385" type="building.yes" color="255,230,230" fill="1" layer="-1.00" shape="2130.160549,869.598007 2162.444162,868.869643 2162.944375,890.942855 2130.660792,891.671222 2130.160549,869.598007"/>
    <poly id="1149406385#1" type="tourism.museum" color="207,245,201" fill="1" layer="-2.00" shape="2130.160549,869.598007 2162.444162,868.869643 2162.944375,890.942855 2130.660792,891.671222 2130.160549,869.598007"/>